533
Lattice="24.8 0.0 0.0 0.0 12.48 0.0 0.0 0.0 30.480000000000004" Properties=species:S:1:pos:R:3 pbc="T T T"
C        8.07315819       8.95654038      19.55389657
C        8.37144604       9.56007139      18.32091187
C        8.31891297       7.60066629      19.75373901
C        8.91818488       8.81593294      17.27556974
C        8.85683333       6.82679151      18.71310608
C        9.14805635       7.44954689      17.47329411
C        9.20238180       5.41609513      18.70682912
C        9.12345714       4.47655842      19.74817939
C        9.72195979       5.00163294      17.45537752
C        9.54185392       3.16565789      19.53158133
C       10.13729453       3.68347295      17.22975220
C       10.03849866       2.76920136      18.27896417
Fe       4.35928000       0.10000000       0.96729000
Fe       4.35928000       3.16000000       0.96729000
Fe       4.35928000       6.22000000       0.96729000
Fe       4.35928000       9.28000000       0.96729000
Fe       4.45925000       0.10000000      12.02136000
Fe       4.45925000       3.16000000      12.02136000
Fe       4.45925000       6.22000000      12.02136000
Fe       4.45925000       9.28000000      12.02136000
Fe       4.49963000       0.10000000       8.29534000
Fe       4.49963000       3.16000000       8.29534000
Fe       4.49963000       6.22000000       8.29534000
Fe       4.49963000       9.28000000       8.29534000
Fe       4.56181000       0.10000000       4.61267000
Fe       4.56181000       3.16000000       4.61267000
Fe       4.56181000       6.22000000       4.61267000
Fe       4.56181000       9.28000000       4.61267000
Fe      10.55929000       1.63000000       0.96729000
Fe      10.55929000       4.69000000       0.96729000
Fe      10.55929000       7.75000000       0.96729000
Fe      10.55929000      10.80999900       0.96729000
Fe      10.65925000       1.63000000      12.02136000
Fe      10.65925000       4.69000000      12.02136000
Fe      10.65925000       7.75000000      12.02136000
Fe      10.65925000      10.80999900      12.02136000
Fe      10.69963000       1.63000000       8.29534000
Fe      10.69963000       4.69000000       8.29534000
Fe      10.69963000       7.75000000       8.29534000
Fe      10.69963000      10.80999900       8.29534000
Fe      10.76181000       1.63000000       4.61267000
Fe      10.76181000       4.69000000       4.61267000
Fe      10.76181000       7.75000000       4.61267000
Fe      10.76181000      10.80999900       4.61267000
Fe      16.75927900       0.10000000       0.96729000
Fe      16.75927900       3.16000000       0.96729000
Fe      16.75927900       6.22000000       0.96729000
Fe      16.75927900       9.28000000       0.96729000
Fe      16.85924900       0.10000000      12.02136000
Fe      16.85924900       3.16000000      12.02136000
Fe      16.85924900       6.22000000      12.02136000
Fe      16.85924900       9.28000000      12.02136000
Fe      16.89963000       0.10000000       8.29534000
Fe      16.89963000       3.16000000       8.29534000
Fe      16.89963000       6.22000000       8.29534000
Fe      16.89963000       9.28000000       8.29534000
Fe      16.96180900       0.10000000       4.61267000
Fe      16.96180900       3.16000000       4.61267000
Fe      16.96180900       6.22000000       4.61267000
Fe      16.96180900       9.28000000       4.61267000
Fe      22.95929000       1.63000000       0.96729000
Fe      22.95929000       4.69000000       0.96729000
Fe      22.95929000       7.75000000       0.96729000
Fe      22.95929000      10.80999900       0.96729000
Fe      23.05925000       1.63000000      12.02136000
Fe      23.05925000       4.69000000      12.02136000
Fe      23.05925000       7.75000000      12.02136000
Fe      23.05925000      10.80999900      12.02136000
Fe      23.09962900       1.63000000       8.29534000
Fe      23.09962900       4.69000000       8.29534000
Fe      23.09962900       7.75000000       8.29534000
Fe      23.09962900      10.80999900       8.29534000
Fe      23.16181000       1.63000000       4.61267000
Fe      23.16181000       4.69000000       4.61267000
Fe      23.16181000       7.75000000       4.61267000
Fe      23.16181000      10.80999900       4.61267000
Fe       2.77357000       1.63000000      10.05317000
Fe       2.77357000       4.69000000      10.05317000
Fe       2.77357000       7.75000000      10.05317000
Fe       2.77357000      10.80999900      10.05317000
Fe       2.83575000       1.63000000       6.37050000
Fe       2.83575000       4.69000000       6.37050000
Fe       2.83575000       7.75000000       6.37050000
Fe       2.83575000      10.80999900       6.37050000
Fe       2.87613000       1.63000000       2.64448000
Fe       2.87613000       4.69000000       2.64448000
Fe       2.87613000       7.75000000       2.64448000
Fe       2.87613000      10.80999900       2.64448000
Fe       2.97609000       1.63000000      13.69855000
Fe       2.97609000       4.69000000      13.69855000
Fe       2.97609000       7.75000000      13.69855000
Fe       2.97609000      10.80999900      13.69855000
Fe       8.97357000       0.10000000      10.05317000
Fe       8.97357000       3.16000000      10.05317000
Fe       8.97357000       6.22000000      10.05317000
Fe       8.97357000       9.28000000      10.05317000
Fe       9.03575000       0.10000000       6.37050000
Fe       9.03575000       3.16000000       6.37050000
Fe       9.03575000       6.22000000       6.37050000
Fe       9.03575000       9.28000000       6.37050000
Fe       9.07613000       0.10000000       2.64448000
Fe       9.07613000       3.16000000       2.64448000
Fe       9.07613000       6.22000000       2.64448000
Fe       9.07613000       9.28000000       2.64448000
Fe       9.17609000       0.10000000      13.69855000
Fe       9.17609000       3.16000000      13.69855000
Fe       9.17609000       6.22000000      13.69855000
Fe       9.17609000       9.28000000      13.69855000
Fe      15.17357000       1.63000000      10.05317000
Fe      15.17357000       4.69000000      10.05317000
Fe      15.17357000       7.75000000      10.05317000
Fe      15.17357000      10.80999900      10.05317000
Fe      15.23574900       1.63000000       6.37050000
Fe      15.23574900       4.69000000       6.37050000
Fe      15.23574900       7.75000000       6.37050000
Fe      15.23574900      10.80999900       6.37050000
Fe      15.27613000       1.63000000       2.64448000
Fe      15.27613000       4.69000000       2.64448000
Fe      15.27613000       7.75000000       2.64448000
Fe      15.27613000      10.80999900       2.64448000
Fe      15.37608900       1.63000000      13.69855000
Fe      15.37608900       7.75000000      13.69855000
Fe      15.37609000       4.69000000      13.69855000
Fe      15.37609000      10.80999900      13.69855000
Fe      21.37357000       0.10000000      10.05317000
Fe      21.37357000       3.16000000      10.05317000
Fe      21.37357000       6.22000000      10.05317000
Fe      21.37357000       9.28000000      10.05317000
Fe      21.43574900       0.10000000       6.37050000
Fe      21.43574900       3.16000000       6.37050000
Fe      21.43574900       6.22000000       6.37050000
Fe      21.43574900       9.28000000       6.37050000
Fe      21.47613000       0.10000000       2.64448000
Fe      21.47613000       3.16000000       2.64448000
Fe      21.47613000       6.22000000       2.64448000
Fe      21.47613000       9.28000000       2.64448000
Fe      21.57609000       0.10000000      13.69855000
Fe      21.57609000       3.16000000      13.69855000
Fe      21.57609000       6.22000000      13.69855000
Fe      21.57609000       9.28000000      13.69855000
H        0.31433000       0.10000000       3.95819000
H        0.31433000       3.16000000       3.95819000
H        0.31433000       6.22000000       3.95819000
H        0.31433000       9.28000000       3.95819000
H        0.33460000       0.10000000       8.74725000
H        0.33460000       3.16000000       8.74725000
H        0.33460000       6.22000000       8.74725000
H        0.33460000       9.28000000       8.74725000
H        0.80078000       0.10000000       5.91859000
H        0.80078000       3.16000000       5.91859000
H        0.80078000       6.22000000       5.91859000
H        0.80078000       9.28000000       5.91859000
H        0.82105000       0.10000000      10.70765000
H        0.82105000       3.16000000      10.70765000
H        0.82105000       6.22000000      10.70765000
H        0.82105000       9.28000000      10.70765000
H        0.92351000       0.10000000       2.01047000
H        0.92351000       3.16000000       2.01047000
H        0.92351000       6.22000000       2.01047000
H        0.92351000       9.28000000       2.01047000
H        1.03538000       0.10000000      14.56584000
H        1.03538000       3.16000000      14.56584000
H        1.03538000       6.22000000      14.56584000
H        1.03538000       9.28000000      14.56584000
H        6.30000000       1.63000000       0.10000000
H        6.30000000       4.69000000       0.10000000
H        6.30000000       7.75000000       0.10000000
H        6.30000000      10.80999900       0.10000000
H        6.41187000       1.63000000      12.65537000
H        6.41187000       4.69000000      12.65537000
H        6.41187000       7.75000000      12.65537000
H        6.41187000      10.80999900      12.65537000
H        6.51433000       1.63000000       3.95819000
H        6.51433000       4.69000000       3.95819000
H        6.51433000       7.75000000       3.95819000
H        6.51433000      10.80999900       3.95819000
H        6.53460000       1.63000000       8.74725000
H        6.53460000       4.69000000       8.74725000
H        6.53460000       7.75000000       8.74725000
H        6.53460000      10.80999900       8.74725000
H        7.00078000       1.63000000       5.91859000
H        7.00078000       4.69000000       5.91859000
H        7.00078000       7.75000000       5.91859000
H        7.00078000      10.80999900       5.91859000
H        7.02105000       1.63000000      10.70765000
H        7.02105000       4.69000000      10.70765000
H        7.02105000       7.75000000      10.70765000
H        7.02105000      10.80999900      10.70765000
H        7.12351000       1.63000000       2.01047000
H        7.12351000       4.69000000       2.01047000
H        7.12351000       7.75000000       2.01047000
H        7.12351000      10.80999900       2.01047000
H        7.23538000       1.63000000      14.56584000
H        7.23538000       4.69000000      14.56584000
H        7.23538000       7.75000000      14.56584000
H        7.23538000      10.80999900      14.56584000
H        7.65495883       9.55814770      20.36150772
H        8.18204154      10.62465056      18.17762298
H        8.09773284       7.14068483      20.71870282
H        9.17944681       9.30001554      16.33073517
H        8.74882981       4.77703709      20.72828913
H        9.49257510       2.44224330      20.34621075
H       10.54074141       3.38472284      16.26040648
H        0.21187000       0.10000000      12.65537000
H        0.21187000       3.16000000      12.65537000
H        0.21187000       6.22000000      12.65537000
H        0.21187000       9.28000000      12.65537000
H        0.10000000       0.10000000       0.10000000
H        0.10000000       3.16000000       0.10000000
H        0.10000000       6.22000000       0.10000000
H        0.10000000       9.28000000       0.10000000
H       10.36595527       1.74035079      18.12410426
H       12.50000000       0.10000000       0.10000000
H       12.50000000       3.16000000       0.10000000
H       12.50000000       6.22000000       0.10000000
H       12.50000000       9.28000000       0.10000000
H       12.61187000       0.10000000      12.65537000
H       12.61187000       3.16000000      12.65537000
H       12.61187000       6.22000000      12.65537000
H       12.61187000       9.28000000      12.65537000
H       12.71433000       0.10000000       3.95819000
H       12.71433000       3.16000000       3.95819000
H       12.71433000       6.22000000       3.95819000
H       12.71433000       9.28000000       3.95819000
H       12.73459900       0.10000000       8.74725000
H       12.73459900       3.16000000       8.74725000
H       12.73459900       6.22000000       8.74725000
H       12.73459900       9.28000000       8.74725000
H       13.20078000       0.10000000       5.91859000
H       13.20078000       3.16000000       5.91859000
H       13.20078000       6.22000000       5.91859000
H       13.20078000       9.28000000       5.91859000
H       13.22104900       0.10000000      10.70765000
H       13.22104900       3.16000000      10.70765000
H       13.22104900       6.22000000      10.70765000
H       13.22104900       9.28000000      10.70765000
H       13.32350900       0.10000000       2.01047000
H       13.32350900       3.16000000       2.01047000
H       13.32350900       6.22000000       2.01047000
H       13.32350900       9.28000000       2.01047000
H       13.43538000       0.10000000      14.56584000
H       13.43538000       3.16000000      14.56584000
H       13.43538000       6.22000000      14.56584000
H       13.43538000       9.28000000      14.56584000
H       18.69999900       1.63000000       0.10000000
H       18.69999900       4.69000000       0.10000000
H       18.69999900       7.75000000       0.10000000
H       18.69999900      10.80999900       0.10000000
H       18.81187100       1.63000000      12.65537000
H       18.81187100       4.69000000      12.65537000
H       18.81187100       7.75000000      12.65537000
H       18.81187100      10.80999900      12.65537000
H       18.91433000       1.63000000       3.95819000
H       18.91433000       4.69000000       3.95819000
H       18.91433000       7.75000000       3.95819000
H       18.91433000      10.80999900       3.95819000
H       18.93459900       1.63000000       8.74725000
H       18.93459900       4.69000000       8.74725000
H       18.93459900       7.75000000       8.74725000
H       18.93459900      10.80999900       8.74725000
H       19.40078000       1.63000000       5.91859000
H       19.40078000       4.69000000       5.91859000
H       19.40078000       7.75000000       5.91859000
H       19.40078000      10.80999900       5.91859000
H       19.42104900       1.63000000      10.70765000
H       19.42104900       4.69000000      10.70765000
H       19.42104900       7.75000000      10.70765000
H       19.42104900      10.80999900      10.70765000
H       19.52351000       1.63000000       2.01047000
H       19.52351000       4.69000000       2.01047000
H       19.52351000       7.75000000       2.01047000
H       19.52351000      10.80999900       2.01047000
H       19.63538000       1.63000000      14.56584000
H       19.63538000       4.69000000      14.56584000
H       19.63538000       7.75000000      14.56584000
H       19.63538000      10.80999900      14.56584000
O        1.55170000       0.10000000      10.01352000
O        1.55170000       3.16000000      10.01352000
O        1.55170000       6.22000000      10.01352000
O        1.55170000       9.28000000      10.01352000
O        1.62720000       0.10000000       2.73137000
O        1.62720000       3.16000000       2.73137000
O        1.62720000       6.22000000       2.73137000
O        1.62720000       9.28000000       2.73137000
O        1.68510000       0.10000000      13.82611000
O        1.68510000       3.16000000      13.82611000
O        1.68510000       6.22000000      13.82611000
O        1.68510000       9.28000000      13.82611000
O        1.71100000       0.10000000       6.36899000
O        1.71100000       3.16000000       6.36899000
O        1.71100000       6.22000000       6.36899000
O        1.71100000       9.28000000       6.36899000
O        3.20280000       1.63000000       0.83333000
O        3.20280000       4.69000000       0.83333000
O        3.20280000       7.75000000       0.83333000
O        3.20280000      10.80999900       0.83333000
O        3.21188000       1.63000000      11.84273000
O        3.21188000       4.69000000      11.84273000
O        3.21188000       7.75000000      11.84273000
O        3.21188000      10.80999900      11.84273000
O        3.21899000       1.63000000       8.22971000
O        3.21899000       4.69000000       8.22971000
O        3.21899000       7.75000000       8.22971000
O        3.21899000      10.80999900       8.22971000
O        3.26997000       1.63000000       4.55336000
O        3.26997000       4.69000000       4.55336000
O        3.26997000       7.75000000       4.55336000
O        3.26997000      10.80999900       4.55336000
O        4.06541000       0.10000000      10.11248000
O        4.06541000       3.16000000      10.11248000
O        4.06541000       6.22000000      10.11248000
O        4.06541000       9.28000000      10.11248000
O        4.11638000       0.10000000       6.43613000
O        4.11638000       3.16000000       6.43613000
O        4.11638000       6.22000000       6.43613000
O        4.11638000       9.28000000       6.43613000
O        4.12350000       0.10000000       2.82311000
O        4.12350000       3.16000000       2.82311000
O        4.12350000       6.22000000       2.82311000
O        4.12350000       9.28000000       2.82311000
O        4.13258000       0.10000000      13.83251000
O        4.13258000       3.16000000      13.83251000
O        4.13258000       6.22000000      13.83251000
O        4.13258000       9.28000000      13.83251000
O        5.62438000       1.63000000       8.29685000
O        5.62438000       4.69000000       8.29685000
O        5.62438000       7.75000000       8.29685000
O        5.62438000      10.80999900       8.29685000
O        5.65028000       1.63000000       0.83973000
O        5.65028000       4.69000000       0.83973000
O        5.65028000       7.75000000       0.83973000
O        5.65028000      10.80999900       0.83973000
O        5.70818000       1.63000000      11.93447000
O        5.70818000       4.69000000      11.93447000
O        5.70818000       7.75000000      11.93447000
O        5.70818000      10.80999900      11.93447000
O        5.78368000       1.63000000       4.65232000
O        5.78368000       4.69000000       4.65232000
O        5.78368000       7.75000000       4.65232000
O        5.78368000      10.80999900       4.65232000
O        7.75170000       1.63000000      10.01352000
O        7.75170000       4.69000000      10.01352000
O        7.75170000       7.75000000      10.01352000
O        7.75170000      10.80999900      10.01352000
O        7.82720000       1.63000000       2.73137000
O        7.82720000       4.69000000       2.73137000
O        7.82720000       7.75000000       2.73137000
O        7.82720000      10.80999900       2.73137000
O        7.88510000       1.63000000      13.82611000
O        7.88510000       4.69000000      13.82611000
O        7.88510000       7.75000000      13.82611000
O        7.88510000      10.80999900      13.82611000
O        7.91100000       1.63000000       6.36899000
O        7.91100000       4.69000000       6.36899000
O        7.91100000       7.75000000       6.36899000
O        7.91100000      10.80999900       6.36899000
O        9.40280000       0.10000000       0.83333000
O        9.40280000       3.16000000       0.83333000
O        9.40280000       6.22000000       0.83333000
O        9.40280000       9.28000000       0.83333000
O        9.41188000       0.10000000      11.84273000
O        9.41188000       3.16000000      11.84273000
O        9.41188000       6.22000000      11.84273000
O        9.41188000       9.28000000      11.84273000
O        9.41899000       0.10000000       8.22971000
O        9.41899000       3.16000000       8.22971000
O        9.41899000       6.22000000       8.22971000
O        9.41899000       9.28000000       8.22971000
O        9.46997000       0.10000000       4.55336000
O        9.46997000       3.16000000       4.55336000
O        9.46997000       6.22000000       4.55336000
O        9.46997000       9.28000000       4.55336000
O       10.26541000       1.63000000      10.11248000
O       10.26541000       4.69000000      10.11248000
O       10.26541000       7.75000000      10.11248000
O       10.26541000      10.80999900      10.11248000
O       10.31638000       1.63000000       6.43613000
O       10.31638000       4.69000000       6.43613000
O       10.31638000       7.75000000       6.43613000
O       10.31638000      10.80999900       6.43613000
O       10.32350000       1.63000000       2.82311000
O       10.32350000       4.69000000       2.82311000
O       10.32350000       7.75000000       2.82311000
O       10.32350000      10.80999900       2.82311000
O       10.33258000       1.63000000      13.83251000
O       10.33258000       4.69000000      13.83251000
O       10.33258000       7.75000000      13.83251000
O       10.33258000      10.80999900      13.83251000
O       11.82438000       0.10000000       8.29685000
O       11.82438000       3.16000000       8.29685000
O       11.82438000       6.22000000       8.29685000
O       11.82438000       9.28000000       8.29685000
O       11.85028000       0.10000000       0.83973000
O       11.85028000       3.16000000       0.83973000
O       11.85028000       6.22000000       0.83973000
O       11.85028000       9.28000000       0.83973000
O       11.90818000       0.10000000      11.93447000
O       11.90818000       3.16000000      11.93447000
O       11.90818000       6.22000000      11.93447000
O       11.90818000       9.28000000      11.93447000
O       11.98368000       0.10000000       4.65232000
O       11.98368000       3.16000000       4.65232000
O       11.98368000       6.22000000       4.65232000
O       11.98368000       9.28000000       4.65232000
O       13.95169900       0.10000000      10.01352000
O       13.95169900       3.16000000      10.01352000
O       13.95169900       6.22000000      10.01352000
O       13.95169900       9.28000000      10.01352000
O       14.02720000       0.10000000       2.73137000
O       14.02720000       3.16000000       2.73137000
O       14.02720000       6.22000000       2.73137000
O       14.02720000       9.28000000       2.73137000
O       14.08509900       0.10000000      13.82611000
O       14.08509900       3.16000000      13.82611000
O       14.08509900       6.22000000      13.82611000
O       14.08509900       9.28000000      13.82611000
O       14.11100000       0.10000000       6.36899000
O       14.11100000       3.16000000       6.36899000
O       14.11100000       6.22000000       6.36899000
O       14.11100000       9.28000000       6.36899000
O       15.60279900       1.63000000       0.83333000
O       15.60279900       4.69000000       0.83333000
O       15.60279900       7.75000000       0.83333000
O       15.60279900      10.80999900       0.83333000
O       15.61187900       1.63000000      11.84273000
O       15.61187900       4.69000000      11.84273000
O       15.61187900       7.75000000      11.84273000
O       15.61187900      10.80999900      11.84273000
O       15.61899000       1.63000000       8.22971000
O       15.61899000       4.69000000       8.22971000
O       15.61899000       7.75000000       8.22971000
O       15.61899000      10.80999900       8.22971000
O       15.66997000       1.63000000       4.55336000
O       15.66997000       4.69000000       4.55336000
O       15.66997000       7.75000000       4.55336000
O       15.66997000      10.80999900       4.55336000
O       16.46541000       0.10000000      10.11248000
O       16.46541000       3.16000000      10.11248000
O       16.46541000       6.22000000      10.11248000
O       16.46541000       9.28000000      10.11248000
O       16.51638000       0.10000000       6.43613000
O       16.51638000       3.16000000       6.43613000
O       16.51638000       6.22000000       6.43613000
O       16.51638000       9.28000000       6.43613000
O       16.52349900       0.10000000       2.82311000
O       16.52349900       3.16000000       2.82311000
O       16.52349900       6.22000000       2.82311000
O       16.52349900       9.28000000       2.82311000
O       16.53258000       0.10000000      13.83251000
O       16.53258000       3.16000000      13.83251000
O       16.53258000       6.22000000      13.83251000
O       16.53258000       9.28000000      13.83251000
O       18.02438000       1.63000000       8.29685000
O       18.02438000       4.69000000       8.29685000
O       18.02438000       7.75000000       8.29685000
O       18.02438000      10.80999900       8.29685000
O       18.05028000       1.63000000       0.83973000
O       18.05028000       4.69000000       0.83973000
O       18.05028000       7.75000000       0.83973000
O       18.05028000      10.80999900       0.83973000
O       18.10817900       1.63000000      11.93447000
O       18.10817900       4.69000000      11.93447000
O       18.10817900       7.75000000      11.93447000
O       18.10817900      10.80999900      11.93447000
O       18.18368000       1.63000000       4.65232000
O       18.18368000       4.69000000       4.65232000
O       18.18368000       7.75000000       4.65232000
O       18.18368000      10.80999900       4.65232000
O       20.15169900       1.63000000      10.01352000
O       20.15169900       4.69000000      10.01352000
O       20.15169900       7.75000000      10.01352000
O       20.15169900      10.80999900      10.01352000
O       20.22720000       1.63000000       2.73137000
O       20.22720000       4.69000000       2.73137000
O       20.22720000       7.75000000       2.73137000
O       20.22720000      10.80999900       2.73137000
O       20.28509900       1.63000000      13.82611000
O       20.28509900       4.69000000      13.82611000
O       20.28509900       7.75000000      13.82611000
O       20.28509900      10.80999900      13.82611000
O       20.31099900       1.63000000       6.36899000
O       20.31099900       4.69000000       6.36899000
O       20.31099900       7.75000000       6.36899000
O       20.31099900      10.80999900       6.36899000
O       21.80279900       0.10000000       0.83333000
O       21.80279900       3.16000000       0.83333000
O       21.80279900       6.22000000       0.83333000
O       21.80279900       9.28000000       0.83333000
O       21.81187800       0.10000000      11.84273000
O       21.81187800       3.16000000      11.84273000
O       21.81187800       6.22000000      11.84273000
O       21.81187800       9.28000000      11.84273000
O       21.81898900       0.10000000       8.22971000
O       21.81898900       3.16000000       8.22971000
O       21.81898900       6.22000000       8.22971000
O       21.81898900       9.28000000       8.22971000
O       21.86996800       0.10000000       4.55336000
O       21.86996800       3.16000000       4.55336000
O       21.86996800       6.22000000       4.55336000
O       21.86996800       9.28000000       4.55336000
O       22.66540900       1.63000000      10.11248000
O       22.66540900       4.69000000      10.11248000
O       22.66540900       7.75000000      10.11248000
O       22.66540900      10.80999900      10.11248000
O       22.71637900       1.63000000       6.43613000
O       22.71637900       4.69000000       6.43613000
O       22.71637900       7.75000000       6.43613000
O       22.71637900      10.80999900       6.43613000
O       22.72349900       1.63000000       2.82311000
O       22.72349900       4.69000000       2.82311000
O       22.72349900       7.75000000       2.82311000
O       22.72349900      10.80999900       2.82311000
O       22.73257800       1.63000000      13.83251000
O       22.73257800       4.69000000      13.83251000
O       22.73257800       7.75000000      13.83251000
O       22.73257800      10.80999900      13.83251000
O       24.22438100       0.10000000       8.29685000
O       24.22438100       3.16000000       8.29685000
O       24.22438100       6.22000000       8.29685000
O       24.22438100       9.28000000       8.29685000
O       24.25027900       0.10000000       0.83973000
O       24.25027900       3.16000000       0.83973000
O       24.25027900       6.22000000       0.83973000
O       24.25027900       9.28000000       0.83973000
O       24.30818000       0.10000000      11.93447000
O       24.30818000       3.16000000      11.93447000
O       24.30818000       6.22000000      11.93447000
O       24.30818000       9.28000000      11.93447000
O       24.38367900       0.10000000       4.65232000
O       24.38367900       3.16000000       4.65232000
O       24.38367900       6.22000000       4.65232000
O       24.38367900       9.28000000       4.65232000
S        9.85712648       6.33188264      16.31778681
